18
connector_0
C      33.829064   12.674915   11.131050
C      31.407110   12.703008   11.129001
O      29.041058   13.260953   12.471012
O      30.176946   13.769998   14.363061
C      32.616866   11.908015    9.084949
C      32.615000   12.450044   10.472028
H      34.776010   12.465111   10.624031
C      32.627956   13.421965   13.098076
O      33.750156   11.671089    8.558060
C      35.149962   13.339097   13.136998
H      32.625152   13.797087   14.126043
O      35.132073   13.837995   14.322090
O      31.484104   11.718061    8.520981
O      36.183058   12.968988   12.510959
C      30.116131   13.423006   13.138023
H      30.453067   12.505058   10.630996
C      31.411930   13.192022   12.438030
C      33.837163   13.160089   12.443971
