42
connector_2
O      15.299907    0.294049    3.302079
N      18.092411   -1.266807    7.448986
O      24.646289   -1.048808    6.304955
O      19.468976    0.486964   10.926921
C      19.892025    0.334881    4.733092
C      18.292534   -0.542755    6.314956
C      17.563331   -0.157822    3.909100
O      21.527307   -1.635797    4.928949
O      21.906900    1.472990    5.150088
C      19.607993   -0.016921    6.089094
O      15.877514   -0.794968    7.123946
N      24.189442   -0.997755    7.687072
O      21.498896    1.290119   11.747024
O      23.489428   -0.090794   11.603117
C      22.727886    0.029117    9.306996
O      18.968079    1.527933   10.127099
C      18.914929    0.226038    3.632954
O      18.580925    1.136097    1.469072
N      19.245974    0.772932    2.420025
O      15.095298   -1.425989    5.030906
O      18.881285   -1.632827    8.306871
O      16.723294   -1.750915    7.685127
O      21.519945    0.542098    3.065105
C      16.448018   -0.043988    2.883972
N      16.033294   -0.957905    5.624036
O      23.603444   -1.195985    5.285105
C      21.368132    0.364135    9.567029
C      21.971391   -0.448907    6.925032
N      19.218892    1.135107    8.716923
O      20.630075    1.258869    2.248892
C      20.628006   -0.015026    7.143948
C      23.812085    0.123124   10.389910
O      16.711354   -0.280836    1.664097
C      17.273276   -0.519934    5.260102
C      20.361996    0.444034    8.493006
O      24.971880    0.464032   10.004861
N      21.093101    0.891138    4.448056
N      22.266526   -1.168913    5.794891
N      20.954037    0.723934   10.816907
C      23.006385   -0.372945    7.967940
O      18.331036    1.498967    7.949882
O      25.074262   -1.408875    8.406051
