42
connector_2
N      18.010013   26.504070    7.448986
C      16.365620   27.726890    2.883972
O      18.885681   29.298810   10.127099
C      23.729687   27.894002   10.389910
O      21.416498   29.060997   11.747024
N      24.107044   26.773123    7.687072
N      15.950896   26.812972    5.624036
C      18.210136   27.228123    6.314956
O      15.217508   28.064927    3.302079
C      17.480933   27.613056    3.909100
C      20.279598   28.214912    8.493006
O      23.521046   26.574893    5.285105
O      19.386578   28.257841   10.926921
O      21.437547   28.312976    3.065105
C      22.645488   27.799995    9.306996
C      20.545607   27.755852    7.143948
O      16.628956   27.490042    1.664097
O      21.444909   26.135081    4.928949
C      17.190878   27.250944    5.260102
C      22.923987   27.397933    7.967940
O      18.498527   28.906975    1.469072
N      19.136494   28.905985    8.716923
C      18.832531   27.996916    3.632954
O      18.798887   26.138051    8.306871
N      21.010703   28.662016    4.448056
O      20.547676   29.029747    2.248892
O      24.991864   26.362003    8.406051
N      19.163576   28.543809    2.420025
O      24.889482   28.234910   10.004861
O      16.640896   26.019963    7.685127
C      19.809627   28.105759    4.733092
O      15.012899   26.344888    5.030906
O      15.795116   26.975909    7.123946
C      21.285734   28.135013    9.567029
O      18.248638   29.269845    7.949882
N      20.871638   28.494812   10.816907
O      24.563891   26.722070    6.304955
O      23.407030   27.680083   11.603117
O      21.824502   29.243868    5.150088
C      19.525595   27.753957    6.089094
C      21.888993   27.321971    6.925032
N      22.184128   26.601964    5.794891
