18
connector_0
O       8.926618   15.788634   29.817831
C      10.401235   14.197564   33.467541
H       8.970815   14.325243   31.855074
C      12.195047   15.898774   33.424046
C       9.918582   16.405981   30.365726
H      12.023523   14.307704   34.882527
O      14.009905   17.364621   33.293211
C      10.429647   15.906491   31.690916
O      14.005696   15.756364   34.892699
C      11.567879   14.775625   34.018242
O      10.534525   17.392332   29.811868
C       9.839660   14.783342   32.310718
O      10.508218   12.327636   34.968114
C      13.453592   16.372658   33.902840
C       9.882453   12.883949   33.985621
C      11.595239   16.462103   32.269328
H      12.070876   17.302536   31.779309
O       8.903819   12.324830   33.354595
