13
connector_1
H       5.837341    7.636663    1.057066
N       7.746670    7.870292    1.531699
C       6.891946    6.639366   -0.350349
H       6.141396    6.325459   -0.842513
H       9.707408    7.897052    1.645779
C       9.247692    6.794776    0.018577
O       9.634325    5.178927   -2.199430
O       7.435777    5.236561   -2.705461
C       8.976179    7.567707    1.137654
C       8.183792    6.331634   -0.754860
H      10.143568    6.584818   -0.217170
C       6.721582    7.416414    0.789921
C       8.440688    5.490775   -1.991157
