42
connector_3
O       7.697877   19.166931    1.065967
O       5.618662   25.471096   -1.318220
O       3.195051   22.614893    0.401995
O      11.360883   22.612939    0.523121
O       9.544003   25.862998   -0.003056
O       4.922931   22.163994    1.682988
C       3.418712   19.626001   -0.075287
C       5.726527   20.437085   -0.417274
N       4.139096   21.911966    0.762873
O       4.851588   15.788156   -1.573252
O       4.584617   22.260234   -2.134156
C       6.442534   22.835233   -0.806212
C       8.817544   23.633220   -0.501174
O       6.911561   16.719139   -0.986234
O      10.567029   20.556093    0.870942
O       2.898686   16.048008   -0.074176
C       3.657638   18.315152   -0.493117
C       2.557675   17.232150   -0.402272
O       1.622115   19.402003    1.371005
C       7.442615   23.900261   -0.763151
N       8.384926   20.033871    0.525066
C       4.416011   20.638978    0.031948
O       9.763868   19.636867    0.175022
O       7.935475   19.710202   -2.150269
C       8.077527   21.243223   -0.016113
C       5.992553   19.128148   -0.962342
N      10.370036   21.943032    0.308094
C       9.871651   24.746020   -0.498118
O       7.679660   26.097005   -1.570196
C       6.739608   21.508086   -0.394216
O      11.019487   24.473046   -0.986234
N       7.030459   25.124232   -1.237377
O       1.380544   17.632200   -0.625356
N       2.023066   19.946068    0.313928
N       5.411552   16.795226   -1.191260
C       9.132566   22.262065   -0.149185
N       7.118473   18.927205   -1.680210
O       4.685477   24.353192   -1.459349
O       7.379612   17.510122   -2.038310
O       1.370707   20.660085   -0.417274
C       5.009543   18.042079   -0.873165
N       5.328641   23.063036   -1.570196
