23
connector_61
C       7.647505    8.107446    3.323049
C       7.569351    6.006704    2.114256
H       8.346479    9.891579   -0.274870
O       8.267611   10.751887    1.029226
C       6.775222    9.736411    4.609433
C       7.890467    8.788227    2.124039
C       8.137317    6.658517   -1.487516
C       7.487033    6.716685    3.318157
C       7.812132    6.687601    0.915321
C       7.894432    5.977630   -0.288506
C       7.972758    8.078372    0.920286
C       8.061284   10.268403    2.129375
H       7.289306    6.162214    4.294322
H       7.763486    4.845167   -0.292657
O       7.192257    4.043063    3.209217
C       8.215634    8.759153   -0.278724
O       7.490341    4.016553    1.005289
C       8.297961    8.049279   -1.482625
O       7.969451   10.778503    3.233154
N       6.976432   10.300485    3.616076
H       8.204280    6.080631   -2.467831
C       7.398516    4.526538    2.108995
H       7.580253    8.685526    4.303215
