25

O          0.91938        1.55939        0.03006
O          1.20484       -1.36941       -0.17373
O          1.27067        0.15247       -2.16737
O          1.55468       -0.07559        2.03752
O         -0.95172       -0.15896        1.60596
O         -1.21162        0.01645       -1.50907
O         -1.25843       -2.08519       -0.03871
O         -1.61422        1.85916        0.25935
Si        -0.00284       -1.71565       -1.96088
Si         0.26040       -1.82782        1.55505
Si         2.54428        0.24720       -0.14213
Si        -0.05619        1.73097        1.93619
Si        -0.25877        1.81994       -1.57705
Si        -2.54827       -0.20664        0.15535
C         -0.82752        3.12870        3.10959
H         -0.18874        3.98710        3.10919
H         -0.91467        2.74942        4.10631
H         -1.79570        3.40441        2.74696
C          1.54196       -2.75592       -2.62167
C         -0.20078       -3.24841       -3.46075
H         -0.42810       -2.55547       -4.24373
H         -0.97385       -3.21759       -2.72162
H         -0.13466       -4.23620       -3.86672
H          2.01721       -3.45378       -1.96438
H          2.48585       -2.46548       -3.03352
