18
cluster_2
Hf     27.278042    1.608039   12.237880
Hf     29.639973    1.605114   14.729099
Hf     27.247204   -0.819989   14.632114
Hf     27.271023    1.638891   17.194957
Hf     27.250065    4.071890   14.792919
H      25.184315   -0.335909   16.596050
O      26.209929    0.619035   13.653909
H      29.138123   -0.409043   12.640867
O      25.861979    0.174011   16.101931
O      28.330079    2.735115   13.636909
O      25.863919    3.079070   13.296070
H      29.145030    3.635140   16.774133
H      25.181936    3.585091   12.803901
Hf     24.808871    1.615083   14.717115
O      28.692877    2.979945   16.098029
O      26.216902    2.629045   15.747993
O      28.690047    0.271868   13.316135
O      28.331081    0.495872   15.829928
