8

 S                 -0.74581666   -0.16173423    0.01105812
 O                 -2.41490634   -0.19658112   -0.03166566
 O                 -0.15588045   -1.72400474   -0.00258380
 O                 -0.17187338    0.66170269   -1.32364812
 *                  1.01538973    0.31683029   -3.13362516
 *                  1.03745847   -3.12707249   -1.23572276
 O                 -0.24060647    0.61194627    1.40213006
 H                 -0.37220218    1.55819450    1.30780690
